
     RDKit          3D

 62 61  0  0  0  0  0  0  0  0999 V2000
   -4.9453   -2.5975   -2.1167 C   0  0  0  0  0  0  0  0  0  0  0  0
   -4.8290   -1.1688   -1.6054 C   0  0  0  0  0  0  0  0  0  0  0  0
   -3.8063   -1.0680   -0.4707 C   0  0  0  0  0  0  0  0  0  0  0  0
   -3.6101    0.3510    0.1085 C   0  0  0  0  0  0  0  0  0  0  0  0
   -3.0568    1.3658   -0.9200 C   0  0  0  0  0  0  0  0  0  0  0  0
   -1.7602    0.9696   -1.6358 C   0  0  0  0  0  0  0  0  0  0  0  0
   -0.5830    0.7444   -0.6849 C   0  0  0  0  0  0  0  0  0  0  0  0
    0.7077    0.4651   -1.4584 C   0  0  0  0  0  0  0  0  0  0  0  0
    1.8858    0.2359   -0.5101 C   0  0  0  0  0  0  0  0  0  0  0  0
    3.1760   -0.0430   -1.2830 C   0  0  0  0  0  0  0  0  0  0  0  0
    4.3547   -0.2723   -0.3341 C   0  0  0  0  0  0  0  0  0  0  0  0
    5.6447   -0.5472   -1.1102 C   0  0  0  0  0  0  0  0  0  0  0  0
    6.8339   -0.8964   -0.2107 C   0  0  0  0  0  0  0  0  0  0  0  0
    7.2833    0.2628    0.6815 C   0  0  0  0  0  0  0  0  0  0  0  0
    8.5420   -0.1018    1.4701 C   0  0  0  0  0  0  0  0  0  0  0  0
    8.9919    1.0442    2.3622 C   0  0  0  0  0  0  0  0  0  0  0  0
   -4.8919    0.9410    0.7458 C   0  0  0  0  0  0  0  0  0  0  0  0
   -5.4829    0.0734    1.8622 C   0  0  0  0  0  0  0  0  0  0  0  0
   -6.5981    0.7741    2.6431 C   0  0  0  0  0  0  0  0  0  0  0  0
   -7.8296    1.0742    1.8024 C   0  0  0  0  0  0  0  0  0  0  0  0
   -5.6800   -2.6515   -2.9261 H   0  0  0  0  0  0  0  0  0  0  0  0
   -3.9859   -2.9546   -2.5046 H   0  0  0  0  0  0  0  0  0  0  0  0
   -5.2681   -3.2744   -1.3193 H   0  0  0  0  0  0  0  0  0  0  0  0
   -4.5399   -0.5214   -2.4397 H   0  0  0  0  0  0  0  0  0  0  0  0
   -5.8152   -0.8401   -1.2617 H   0  0  0  0  0  0  0  0  0  0  0  0
   -2.8413   -1.4509   -0.8238 H   0  0  0  0  0  0  0  0  0  0  0  0
   -4.1000   -1.7494    0.3370 H   0  0  0  0  0  0  0  0  0  0  0  0
   -2.8713    0.2628    0.9161 H   0  0  0  0  0  0  0  0  0  0  0  0
   -3.8199    1.5691   -1.6818 H   0  0  0  0  0  0  0  0  0  0  0  0
   -2.8841    2.3227   -0.4095 H   0  0  0  0  0  0  0  0  0  0  0  0
   -1.5032    1.7755   -2.3351 H   0  0  0  0  0  0  0  0  0  0  0  0
   -1.9228    0.0764   -2.2493 H   0  0  0  0  0  0  0  0  0  0  0  0
   -0.4474    1.6295   -0.0518 H   0  0  0  0  0  0  0  0  0  0  0  0
   -0.7913   -0.1019   -0.0210 H   0  0  0  0  0  0  0  0  0  0  0  0
    0.5705   -0.4179   -2.0943 H   0  0  0  0  0  0  0  0  0  0  0  0
    0.9294    1.3103   -2.1214 H   0  0  0  0  0  0  0  0  0  0  0  0
    1.6648   -0.6095    0.1528 H   0  0  0  0  0  0  0  0  0  0  0  0
    2.0221    1.1188    0.1262 H   0  0  0  0  0  0  0  0  0  0  0  0
    3.3975    0.8023   -1.9458 H   0  0  0  0  0  0  0  0  0  0  0  0
    3.0388   -0.9259   -1.9192 H   0  0  0  0  0  0  0  0  0  0  0  0
    4.4792    0.6118    0.3010 H   0  0  0  0  0  0  0  0  0  0  0  0
    4.1348   -1.1198    0.3261 H   0  0  0  0  0  0  0  0  0  0  0  0
    5.8959    0.3213   -1.7312 H   0  0  0  0  0  0  0  0  0  0  0  0
    5.4775   -1.3873   -1.7957 H   0  0  0  0  0  0  0  0  0  0  0  0
    7.6703   -1.1980   -0.8535 H   0  0  0  0  0  0  0  0  0  0  0  0
    6.5833   -1.7658    0.4093 H   0  0  0  0  0  0  0  0  0  0  0  0
    6.4855    0.5276    1.3843 H   0  0  0  0  0  0  0  0  0  0  0  0
    7.4805    1.1474    0.0641 H   0  0  0  0  0  0  0  0  0  0  0  0
    9.3534   -0.3588    0.7793 H   0  0  0  0  0  0  0  0  0  0  0  0
    8.3503   -0.9859    2.0892 H   0  0  0  0  0  0  0  0  0  0  0  0
    9.8933    0.7625    2.9155 H   0  0  0  0  0  0  0  0  0  0  0  0
    8.2151    1.3046    3.0883 H   0  0  0  0  0  0  0  0  0  0  0  0
    9.2216    1.9356    1.7697 H   0  0  0  0  0  0  0  0  0  0  0  0
   -4.6487    1.9267    1.1638 H   0  0  0  0  0  0  0  0  0  0  0  0
   -5.6454    1.1138   -0.0308 H   0  0  0  0  0  0  0  0  0  0  0  0
   -5.8752   -0.8621    1.4478 H   0  0  0  0  0  0  0  0  0  0  0  0
   -4.6877   -0.1964    2.5678 H   0  0  0  0  0  0  0  0  0  0  0  0
   -6.2197    1.7050    3.0812 H   0  0  0  0  0  0  0  0  0  0  0  0
   -6.8950    0.1290    3.4786 H   0  0  0  0  0  0  0  0  0  0  0  0
   -8.6239    1.4855    2.4336 H   0  0  0  0  0  0  0  0  0  0  0  0
   -8.2115    0.1656    1.3263 H   0  0  0  0  0  0  0  0  0  0  0  0
   -7.6130    1.8096    1.0221 H   0  0  0  0  0  0  0  0  0  0  0  0
  1  2  1  0
  2  3  1  0
  3  4  1  0
  4  5  1  0
  5  6  1  0
  6  7  1  0
  7  8  1  0
  8  9  1  0
  9 10  1  0
 10 11  1  0
 11 12  1  0
 12 13  1  0
 13 14  1  0
 14 15  1  0
 15 16  1  0
  4 17  1  0
 17 18  1  0
 18 19  1  0
 19 20  1  0
  1 21  1  0
  1 22  1  0
  1 23  1  0
  2 24  1  0
  2 25  1  0
  3 26  1  0
  3 27  1  0
  4 28  1  0
  5 29  1  0
  5 30  1  0
  6 31  1  0
  6 32  1  0
  7 33  1  0
  7 34  1  0
  8 35  1  0
  8 36  1  0
  9 37  1  0
  9 38  1  0
 10 39  1  0
 10 40  1  0
 11 41  1  0
 11 42  1  0
 12 43  1  0
 12 44  1  0
 13 45  1  0
 13 46  1  0
 14 47  1  0
 14 48  1  0
 15 49  1  0
 15 50  1  0
 16 51  1  0
 16 52  1  0
 16 53  1  0
 17 54  1  0
 17 55  1  0
 18 56  1  0
 18 57  1  0
 19 58  1  0
 19 59  1  0
 20 60  1  0
 20 61  1  0
 20 62  1  0
M  END
