
     RDKit          3D

 47 46  0  0  0  0  0  0  0  0999 V2000
   -2.4603   -3.0284    1.1548 C   0  0  0  0  0  0  0  0  0  0  0  0
   -2.0984   -1.8773    0.2273 C   0  0  0  0  0  0  0  0  0  0  0  0
   -1.8072   -0.5994    1.0179 C   0  0  0  0  0  0  0  0  0  0  0  0
   -1.4290    0.6282    0.1591 C   0  0  0  0  0  0  0  0  0  0  0  0
   -0.1275    0.4378   -0.6552 C   0  0  0  0  0  0  0  0  0  0  0  0
    1.0960    0.0891    0.1974 C   0  0  0  0  0  0  0  0  0  0  0  0
    2.3726    0.0716   -0.6472 C   0  0  0  0  0  0  0  0  0  0  0  0
    3.5953   -0.2849    0.2000 C   0  0  0  0  0  0  0  0  0  0  0  0
    4.8710   -0.3020   -0.6437 C   0  0  0  0  0  0  0  0  0  0  0  0
    6.0926   -0.6584    0.2029 C   0  0  0  0  0  0  0  0  0  0  0  0
    7.3630   -0.6765   -0.6322 C   0  0  0  0  0  0  0  0  0  0  0  0
   -2.5530    1.0825   -0.8018 C   0  0  0  0  0  0  0  0  0  0  0  0
   -3.8756    1.4113   -0.1031 C   0  0  0  0  0  0  0  0  0  0  0  0
   -4.8881    2.0027   -1.0855 C   0  0  0  0  0  0  0  0  0  0  0  0
   -6.2067    2.3243   -0.4003 C   0  0  0  0  0  0  0  0  0  0  0  0
   -1.6405   -3.2476    1.8464 H   0  0  0  0  0  0  0  0  0  0  0  0
   -2.6652   -3.9330    0.5736 H   0  0  0  0  0  0  0  0  0  0  0  0
   -3.3533   -2.7929    1.7425 H   0  0  0  0  0  0  0  0  0  0  0  0
   -2.9281   -1.7156   -0.4686 H   0  0  0  0  0  0  0  0  0  0  0  0
   -1.2248   -2.1678   -0.3652 H   0  0  0  0  0  0  0  0  0  0  0  0
   -1.0035   -0.7981    1.7373 H   0  0  0  0  0  0  0  0  0  0  0  0
   -2.6794   -0.3531    1.6355 H   0  0  0  0  0  0  0  0  0  0  0  0
   -1.2512    1.4563    0.8598 H   0  0  0  0  0  0  0  0  0  0  0  0
    0.0817    1.3705   -1.1958 H   0  0  0  0  0  0  0  0  0  0  0  0
   -0.2704   -0.3331   -1.4221 H   0  0  0  0  0  0  0  0  0  0  0  0
    0.9649   -0.8954    0.6596 H   0  0  0  0  0  0  0  0  0  0  0  0
    1.2018    0.8212    1.0069 H   0  0  0  0  0  0  0  0  0  0  0  0
    2.2642   -0.6560   -1.4608 H   0  0  0  0  0  0  0  0  0  0  0  0
    2.5212    1.0548   -1.1099 H   0  0  0  0  0  0  0  0  0  0  0  0
    3.7028    0.4424    1.0139 H   0  0  0  0  0  0  0  0  0  0  0  0
    3.4477   -1.2684    0.6625 H   0  0  0  0  0  0  0  0  0  0  0  0
    4.7634   -1.0291   -1.4579 H   0  0  0  0  0  0  0  0  0  0  0  0
    5.0188    0.6815   -1.1063 H   0  0  0  0  0  0  0  0  0  0  0  0
    5.9517   -1.6427    0.6644 H   0  0  0  0  0  0  0  0  0  0  0  0
    6.2071    0.0679    1.0160 H   0  0  0  0  0  0  0  0  0  0  0  0
    7.2937   -1.4166   -1.4358 H   0  0  0  0  0  0  0  0  0  0  0  0
    7.5506    0.3035   -1.0823 H   0  0  0  0  0  0  0  0  0  0  0  0
    8.2239   -0.9335   -0.0070 H   0  0  0  0  0  0  0  0  0  0  0  0
   -2.7254    0.3191   -1.5702 H   0  0  0  0  0  0  0  0  0  0  0  0
   -2.2107    1.9796   -1.3348 H   0  0  0  0  0  0  0  0  0  0  0  0
   -4.3024    0.5055    0.3414 H   0  0  0  0  0  0  0  0  0  0  0  0
   -3.6953    2.1233    0.7110 H   0  0  0  0  0  0  0  0  0  0  0  0
   -4.4834    2.9182   -1.5324 H   0  0  0  0  0  0  0  0  0  0  0  0
   -5.0704    1.2953   -1.9029 H   0  0  0  0  0  0  0  0  0  0  0  0
   -6.6556    1.4230    0.0294 H   0  0  0  0  0  0  0  0  0  0  0  0
   -6.0635    3.0537    0.4033 H   0  0  0  0  0  0  0  0  0  0  0  0
   -6.9149    2.7464   -1.1201 H   0  0  0  0  0  0  0  0  0  0  0  0
  1  2  1  0
  2  3  1  0
  3  4  1  0
  4  5  1  0
  5  6  1  0
  6  7  1  0
  7  8  1  0
  8  9  1  0
  9 10  1  0
 10 11  1  0
  4 12  1  0
 12 13  1  0
 13 14  1  0
 14 15  1  0
  1 16  1  0
  1 17  1  0
  1 18  1  0
  2 19  1  0
  2 20  1  0
  3 21  1  0
  3 22  1  0
  4 23  1  0
  5 24  1  0
  5 25  1  0
  6 26  1  0
  6 27  1  0
  7 28  1  0
  7 29  1  0
  8 30  1  0
  8 31  1  0
  9 32  1  0
  9 33  1  0
 10 34  1  0
 10 35  1  0
 11 36  1  0
 11 37  1  0
 11 38  1  0
 12 39  1  0
 12 40  1  0
 13 41  1  0
 13 42  1  0
 14 43  1  0
 14 44  1  0
 15 45  1  0
 15 46  1  0
 15 47  1  0
M  END
