
     RDKit          3D

 38 37  0  0  0  0  0  0  0  0999 V2000
   13.0531   -3.1201    0.7688 C   0  0  0  0  0  0  0  0  0  0  0  0
   12.2155   -3.0040    2.0323 C   0  0  0  0  0  0  0  0  0  0  0  0
   11.1190   -4.0696    2.0776 C   0  0  0  0  0  0  0  0  0  0  0  0
   10.2848   -3.9518    3.3566 C   0  0  0  0  0  0  0  0  0  0  0  0
    9.0596   -4.8954    3.3987 C   0  0  0  0  0  0  0  0  0  0  0  0
    8.2499   -4.5998    4.6833 C   0  0  0  0  0  0  0  0  0  0  0  0
    6.9474   -5.3955    4.7956 C   0  0  0  0  0  0  0  0  0  0  0  0
    6.1255   -4.9463    5.9947 C   0  0  0  0  0  0  0  0  0  0  0  0
    9.4205   -6.3877    3.2240 C   0  0  0  0  0  0  0  0  0  0  0  0
   10.3216   -6.9686    4.3181 C   0  0  0  0  0  0  0  0  0  0  0  0
   10.6218   -8.4460    4.0565 C   0  0  0  0  0  0  0  0  0  0  0  0
   11.5161   -9.0326    5.1371 C   0  0  0  0  0  0  0  0  0  0  0  0
   12.4342   -2.9932   -0.1252 H   0  0  0  0  0  0  0  0  0  0  0  0
   13.8297   -2.3489    0.7566 H   0  0  0  0  0  0  0  0  0  0  0  0
   13.5437   -4.0970    0.7116 H   0  0  0  0  0  0  0  0  0  0  0  0
   11.7667   -2.0048    2.0747 H   0  0  0  0  0  0  0  0  0  0  0  0
   12.8682   -3.1044    2.9073 H   0  0  0  0  0  0  0  0  0  0  0  0
   10.4679   -3.9635    1.2018 H   0  0  0  0  0  0  0  0  0  0  0  0
   11.5857   -5.0592    2.0218 H   0  0  0  0  0  0  0  0  0  0  0  0
    9.9273   -2.9171    3.4428 H   0  0  0  0  0  0  0  0  0  0  0  0
   10.9265   -4.1258    4.2289 H   0  0  0  0  0  0  0  0  0  0  0  0
    8.4188   -4.6278    2.5466 H   0  0  0  0  0  0  0  0  0  0  0  0
    8.0042   -3.5296    4.6989 H   0  0  0  0  0  0  0  0  0  0  0  0
    8.8680   -4.7828    5.5707 H   0  0  0  0  0  0  0  0  0  0  0  0
    7.1605   -6.4640    4.9040 H   0  0  0  0  0  0  0  0  0  0  0  0
    6.3522   -5.2684    3.8842 H   0  0  0  0  0  0  0  0  0  0  0  0
    5.2026   -5.5309    6.0616 H   0  0  0  0  0  0  0  0  0  0  0  0
    5.8522   -3.8897    5.9102 H   0  0  0  0  0  0  0  0  0  0  0  0
    6.6837   -5.0842    6.9262 H   0  0  0  0  0  0  0  0  0  0  0  0
    8.4979   -6.9780    3.1685 H   0  0  0  0  0  0  0  0  0  0  0  0
    9.9025   -6.5305    2.2493 H   0  0  0  0  0  0  0  0  0  0  0  0
   11.2658   -6.4149    4.3626 H   0  0  0  0  0  0  0  0  0  0  0  0
    9.8386   -6.8700    5.2963 H   0  0  0  0  0  0  0  0  0  0  0  0
   11.1127   -8.5597    3.0830 H   0  0  0  0  0  0  0  0  0  0  0  0
    9.6856   -9.0150    4.0169 H   0  0  0  0  0  0  0  0  0  0  0  0
   11.0401   -8.9637    6.1205 H   0  0  0  0  0  0  0  0  0  0  0  0
   12.4748   -8.5060    5.1815 H   0  0  0  0  0  0  0  0  0  0  0  0
   11.7177  -10.0883    4.9305 H   0  0  0  0  0  0  0  0  0  0  0  0
  1  2  1  0
  2  3  1  0
  3  4  1  0
  4  5  1  0
  5  6  1  0
  6  7  1  0
  7  8  1  0
  5  9  1  0
  9 10  1  0
 10 11  1  0
 11 12  1  0
  1 13  1  0
  1 14  1  0
  1 15  1  0
  2 16  1  0
  2 17  1  0
  3 18  1  0
  3 19  1  0
  4 20  1  0
  4 21  1  0
  5 22  1  0
  6 23  1  0
  6 24  1  0
  7 25  1  0
  7 26  1  0
  8 27  1  0
  8 28  1  0
  8 29  1  0
  9 30  1  0
  9 31  1  0
 10 32  1  0
 10 33  1  0
 11 34  1  0
 11 35  1  0
 12 36  1  0
 12 37  1  0
 12 38  1  0
M  END
